*integrator
r1 1 2 1k
c1 2 6 0.1uf
x  0 2 7 4 6 ua741
vin 1 0 pulse(0 5 1m 0 0 0.5m 50)
vp 7 0 dc 12
vn 0 4 dc 12
.lib C:\Cadence\SPB_17.2\tools\pspice\library\opamp.lib
.tran .9m 5m
.probe
.end
